454
     RDKit          2D

 18 19  0  0  0  0  0  0  0  0999 V2000
    2.8876    1.0154    0.0000 O   0  0  0  0  0  0  0  0  0  0  0  0
    3.8558    1.8279    0.0000 O   0  0  0  0  0  0  0  0  0  0  0  0
    4.1251   -1.3491    0.0000 N   0  0  0  0  0  0  0  0  0  0  0  0
    4.1251    0.3010    0.0000 C   0  0  0  0  0  0  0  0  0  0  0  0
    4.8396   -0.1115    0.0000 C   0  0  0  0  0  0  0  0  0  0  0  0
    3.4106   -0.1115    0.0000 C   0  0  0  0  0  0  0  0  0  0  0  0
    4.8396   -0.9366    0.0000 C   0  0  0  0  0  0  0  0  0  0  0  0
    3.4106   -0.9366    0.0000 C   0  0  0  0  0  0  0  0  0  0  0  0
    4.7571    0.8313    0.0000 C   0  0  0  0  0  0  0  0  0  0  0  0
    3.7126    1.0154    0.0000 C   0  0  0  0  0  0  0  0  0  0  0  0
    4.1251   -2.1741    0.0000 C   0  0  0  0  0  0  0  0  0  0  0  0
    4.6138    1.6438    0.0000 C   0  0  0  0  0  0  0  0  0  0  0  0
    5.5323    0.5491    0.0000 C   0  0  0  0  0  0  0  0  0  0  0  0
    5.2458    2.1741    0.0000 C   0  0  0  0  0  0  0  0  0  0  0  0
    6.1644    1.0795    0.0000 C   0  0  0  0  0  0  0  0  0  0  0  0
    6.0211    1.8919    0.0000 C   0  0  0  0  0  0  0  0  0  0  0  0
    2.4751    1.7300    0.0000 C   0  0  0  0  0  0  0  0  0  0  0  0
    1.6500    1.7300    0.0000 C   0  0  0  0  0  0  0  0  0  0  0  0
  1 10  1  0
  1 17  1  0
  2 10  2  0
  3  7  1  0
  3  8  1  0
  3 11  1  0
  4  5  1  0
  4  6  1  0
  4  9  1  0
  4 10  1  0
  5  7  1  0
  6  8  1  0
  9 12  2  0
  9 13  1  0
 12 14  1  0
 13 15  2  0
 14 16  2  0
 15 16  1  0
 17 18  1  0
M  END
$$$$
