622
     RDKit          2D

 35 37  0  0  1  0  0  0  0  0999 V2000
    6.6515   -0.9818    0.0000 O   0  0  0  0  0  0  0  0  0  0  0  0
   10.9383   -0.9818    0.0000 O   0  0  0  0  0  0  0  0  0  0  0  0
    7.3659    0.2558    0.0000 O   0  0  0  0  0  0  0  0  0  0  0  0
   10.2239    0.2558    0.0000 O   0  0  0  0  0  0  0  0  0  0  0  0
   10.2239    2.7308    0.0000 O   0  0  0  0  0  0  0  0  0  0  0  0
   10.9383    1.4933    0.0000 O   0  0  0  0  0  0  0  0  0  0  0  0
    8.7949   -2.2193    0.0000 N   0  0  0  0  0  0  0  0  0  0  0  0
    4.5080   -0.5693    0.0000 N   0  0  0  0  0  0  0  0  0  0  0  0
   10.2239    1.9058    0.0000 N   0  0  0  0  0  0  0  0  0  0  0  0
    8.7949   -0.5693    0.0000 C   0  0  0  0  0  0  0  0  0  0  0  0
    8.0804   -0.9818    0.0000 C   0  0  0  0  0  0  0  0  0  0  0  0
    9.5094   -0.9818    0.0000 C   0  0  0  0  0  0  0  0  0  0  0  0
    8.7949    0.2558    0.0000 C   0  0  0  0  0  0  0  0  0  0  0  0
    8.0804   -1.8068    0.0000 C   0  0  0  0  0  0  0  0  0  0  0  0
    9.5094   -1.8068    0.0000 C   0  0  0  0  0  0  0  0  0  0  0  0
    7.3659   -0.5693    0.0000 C   0  0  0  0  0  0  0  0  0  0  0  0
    9.5094    0.6683    0.0000 C   0  0  0  0  0  0  0  0  0  0  0  0
    8.0804    0.6683    0.0000 C   0  0  0  0  0  0  0  0  0  0  0  0
    7.3659   -2.2193    0.0000 C   0  0  0  0  0  0  0  0  0  0  0  0
   10.2239   -0.5693    0.0000 C   0  0  0  0  0  0  0  0  0  0  0  0
   10.2239   -2.2193    0.0000 C   0  0  0  0  0  0  0  0  0  0  0  0
    5.2224   -0.9818    0.0000 C   0  0  0  0  0  0  0  0  0  0  0  0
    5.9370   -0.5693    0.0000 C   0  0  0  0  0  0  0  0  0  0  0  0
    9.5094    1.4933    0.0000 C   0  0  0  0  0  0  0  0  0  0  0  0
    8.0804    1.4933    0.0000 C   0  0  0  0  0  0  0  0  0  0  0  0
    3.7935   -0.9818    0.0000 C   0  0  0  0  0  0  0  0  0  0  0  0
    8.7949    1.9058    0.0000 C   0  0  0  0  0  0  0  0  0  0  0  0
    3.0791   -0.5693    0.0000 C   0  0  0  0  0  0  0  0  0  0  0  0
    4.5080    0.2558    0.0000 C   0  0  0  0  0  0  0  0  0  0  0  0
    2.3645   -0.9818    0.0000 C   0  0  0  0  0  0  0  0  0  0  0  0
    3.0791    0.2558    0.0000 C   0  0  0  0  0  0  0  0  0  0  0  0
   11.6529   -0.5693    0.0000 C   0  0  0  0  0  0  0  0  0  0  0  0
    1.6500   -0.5693    0.0000 C   0  0  0  0  0  0  0  0  0  0  0  0
    2.3645    0.6683    0.0000 C   0  0  0  0  0  0  0  0  0  0  0  0
    1.6500    0.2558    0.0000 C   0  0  0  0  0  0  0  0  0  0  0  0
  1 16  1  0
  1 23  1  0
  2 20  1  0
  2 32  1  0
  3 16  2  0
  4 20  2  0
  5  9  1  0
  6  9  2  0
  7 14  1  0
  7 15  1  0
  8 22  1  0
  8 26  1  0
  8 29  1  0
  9 24  1  0
 10 11  1  0
 10 12  1  0
 10 13  1  0
 11 14  2  0
 11 16  1  0
 12 15  2  0
 12 20  1  0
 13 17  2  0
 13 18  1  0
 14 19  1  0
 15 21  1  0
 17 24  1  0
 18 25  2  0
 22 23  1  0
 24 27  2  0
 25 27  1  0
 26 28  1  0
 28 30  2  0
 28 31  1  0
 30 33  1  0
 31 34  2  0
 33 35  2  0
 34 35  1  0
M  CHG  2   5  -1   9   1
M  END
$$$$
