944
     RDKit          2D

 40 41  0  0  0  0  0  0  0  0999 V2000
    9.8294   13.2993    0.0000 O   0  0  0  0  0  0  0  0  0  0  0  0
    4.8281    3.8116    0.0000 O   0  0  0  0  0  0  0  0  0  0  0  0
   10.5440   12.0618    0.0000 O   0  0  0  0  0  0  0  0  0  0  0  0
    4.1135    5.0491    0.0000 O   0  0  0  0  0  0  0  0  0  0  0  0
   11.2584   15.7743    0.0000 N   0  0  0  0  0  0  0  0  0  0  0  0
    3.3991    1.3365    0.0000 N   0  0  0  0  0  0  0  0  0  0  0  0
    9.1150   12.0618    0.0000 N   0  0  0  0  0  0  0  0  0  0  0  0
    5.5426    5.0491    0.0000 N   0  0  0  0  0  0  0  0  0  0  0  0
    7.6860    8.7617    0.0000 C   0  0  0  0  0  0  0  0  0  0  0  0
    6.9715    8.3492    0.0000 C   0  0  0  0  0  0  0  0  0  0  0  0
    7.6860    9.5867    0.0000 C   0  0  0  0  0  0  0  0  0  0  0  0
    6.9715    7.5242    0.0000 C   0  0  0  0  0  0  0  0  0  0  0  0
    8.4005    9.9992    0.0000 C   0  0  0  0  0  0  0  0  0  0  0  0
    6.2570    7.1117    0.0000 C   0  0  0  0  0  0  0  0  0  0  0  0
    8.4005   10.8242    0.0000 C   0  0  0  0  0  0  0  0  0  0  0  0
    6.2570    6.2866    0.0000 C   0  0  0  0  0  0  0  0  0  0  0  0
    9.1150   11.2367    0.0000 C   0  0  0  0  0  0  0  0  0  0  0  0
    5.5426    5.8741    0.0000 C   0  0  0  0  0  0  0  0  0  0  0  0
   11.2584   14.9493    0.0000 C   0  0  0  0  0  0  0  0  0  0  0  0
    3.3991    2.1615    0.0000 C   0  0  0  0  0  0  0  0  0  0  0  0
   11.2584   16.5994    0.0000 C   0  0  0  0  0  0  0  0  0  0  0  0
   12.0835   15.7743    0.0000 C   0  0  0  0  0  0  0  0  0  0  0  0
   10.4334   15.7743    0.0000 C   0  0  0  0  0  0  0  0  0  0  0  0
    3.3991    0.5115    0.0000 C   0  0  0  0  0  0  0  0  0  0  0  0
    2.5741    1.3365    0.0000 C   0  0  0  0  0  0  0  0  0  0  0  0
    4.2241    1.3365    0.0000 C   0  0  0  0  0  0  0  0  0  0  0  0
   10.5440   14.5368    0.0000 C   0  0  0  0  0  0  0  0  0  0  0  0
    4.1135    2.5741    0.0000 C   0  0  0  0  0  0  0  0  0  0  0  0
   11.9729   14.5368    0.0000 C   0  0  0  0  0  0  0  0  0  0  0  0
    2.6846    2.5741    0.0000 C   0  0  0  0  0  0  0  0  0  0  0  0
   10.5440   13.7118    0.0000 C   0  0  0  0  0  0  0  0  0  0  0  0
    4.1135    3.3991    0.0000 C   0  0  0  0  0  0  0  0  0  0  0  0
    9.8294   12.4743    0.0000 C   0  0  0  0  0  0  0  0  0  0  0  0
    4.8281    4.6366    0.0000 C   0  0  0  0  0  0  0  0  0  0  0  0
    8.4005   12.4743    0.0000 C   0  0  0  0  0  0  0  0  0  0  0  0
    6.2570    4.6366    0.0000 C   0  0  0  0  0  0  0  0  0  0  0  0
   11.9729   13.7118    0.0000 C   0  0  0  0  0  0  0  0  0  0  0  0
    2.6846    3.3991    0.0000 C   0  0  0  0  0  0  0  0  0  0  0  0
   11.2584   13.2993    0.0000 C   0  0  0  0  0  0  0  0  0  0  0  0
    3.3991    3.8116    0.0000 C   0  0  0  0  0  0  0  0  0  0  0  0
  1 31  1  0
  1 33  1  0
  2 32  1  0
  2 34  1  0
  3 33  2  0
  4 34  2  0
  5 19  1  0
  5 21  1  0
  5 22  1  0
  5 23  1  0
  6 20  1  0
  6 24  1  0
  6 25  1  0
  6 26  1  0
  7 17  1  0
  7 33  1  0
  7 35  1  0
  8 18  1  0
  8 34  1  0
  8 36  1  0
  9 10  1  0
  9 11  1  0
 10 12  1  0
 11 13  1  0
 12 14  1  0
 13 15  1  0
 14 16  1  0
 15 17  1  0
 16 18  1  0
 19 27  2  0
 19 29  1  0
 20 28  2  0
 20 30  1  0
 27 31  1  0
 28 32  1  0
 29 37  2  0
 30 38  2  0
 31 39  2  0
 32 40  2  0
 37 39  1  0
 38 40  1  0
M  CHG  2   5   1   6   1
M  END
$$$$
