521
     RDKit          2D

 21 22  0  0  1  0  0  0  0  0999 V2000
    4.5214    0.3034    0.0000 O   0  0  0  0  0  0  0  0  0  0  0  0
    4.5023   -1.3466    0.0000 O   0  0  0  0  0  0  0  0  0  0  0  0
    1.6500    2.8069    0.0000 O   0  0  0  0  0  0  0  0  0  0  0  0
    5.9216   -2.1880    0.0000 N   0  0  0  0  0  0  0  0  0  0  0  0
    3.0790    2.8069    0.0000 N   0  0  0  0  0  0  0  0  0  0  0  0
    6.6313   -2.6087    0.0000 C   0  0  0  0  0  0  0  0  0  0  0  0
    5.9312   -1.3631    0.0000 C   0  0  0  0  0  0  0  0  0  0  0  0
    5.2215   -0.9423    0.0000 C   0  0  0  0  0  0  0  0  0  0  0  0
    7.3409   -3.0295    0.0000 C   0  0  0  0  0  0  0  0  0  0  0  0
    6.2105   -3.3184    0.0000 C   0  0  0  0  0  0  0  0  0  0  0  0
    7.0520   -1.8991    0.0000 C   0  0  0  0  0  0  0  0  0  0  0  0
    3.7934    1.5694    0.0000 C   0  0  0  0  0  0  0  0  0  0  0  0
    5.2310   -0.1174    0.0000 C   0  0  0  0  0  0  0  0  0  0  0  0
    3.0790    1.1569    0.0000 C   0  0  0  0  0  0  0  0  0  0  0  0
    4.5309    1.1283    0.0000 C   0  0  0  0  0  0  0  0  0  0  0  0
    3.7934    2.3944    0.0000 C   0  0  0  0  0  0  0  0  0  0  0  0
    2.3645    1.5694    0.0000 C   0  0  0  0  0  0  0  0  0  0  0  0
    2.3645    2.3944    0.0000 C   0  0  0  0  0  0  0  0  0  0  0  0
    5.2784    1.5522    0.0000 C   0  0  0  0  0  0  0  0  0  0  0  0
    4.5309    2.8355    0.0000 C   0  0  0  0  0  0  0  0  0  0  0  0
    5.2784    2.4116    0.0000 C   0  0  0  0  0  0  0  0  0  0  0  0
  1 13  1  0
  1 15  1  0
  2  8  1  0
  3 18  2  0
  4  6  1  0
  4  7  1  0
  5 16  1  0
  5 18  1  0
  6  9  1  0
  6 10  1  0
  6 11  1  0
  7  8  1  0
  8 13  1  0
 12 14  1  0
 12 15  2  0
 12 16  1  0
 14 17  1  0
 15 19  1  0
 16 20  2  0
 17 18  1  0
 19 21  2  0
 20 21  1  0
M  END
$$$$
