 
     RDKit          2D

 17 18  0  0  1  0  0  0  0  0999 V2000
   16.7212  -13.4281    0.0000 C   0  0  0  0  0  0  0  0  0  0  0  0
   16.7212  -12.5957    0.0000 C   0  0  0  0  0  0  0  0  0  0  0  0
   16.0019  -13.8495    0.0000 N   0  0  0  0  0  0  0  0  0  0  0  0
   17.4407  -13.8392    0.0000 N   0  0  0  0  0  0  0  0  0  0  0  0
   15.9950  -12.1812    0.0000 N   0  0  0  0  0  0  0  0  0  0  0  0
   17.4407  -12.1777    0.0000 C   0  0  0  0  0  0  0  0  0  0  0  0
   15.2756  -13.4349    0.0000 C   0  0  0  0  0  0  0  0  0  0  0  0
   18.1463  -13.4281    0.0000 C   0  0  0  0  0  0  0  0  0  0  0  0
   15.2619  -12.6025    0.0000 C   0  0  0  0  0  0  0  0  0  0  0  0
   18.1463  -12.5957    0.0000 N   0  0  0  0  0  0  0  0  0  0  0  0
   17.4407  -11.3590    0.0000 O   0  0  0  0  0  0  0  0  0  0  0  0
   18.8590  -13.8392    0.0000 N   0  0  0  0  0  0  0  0  0  0  0  0
   14.5699  -12.2359    0.0000 C   0  0  0  0  0  0  0  0  0  0  0  0
   13.8676  -12.6607    0.0000 C   0  0  0  0  0  0  0  0  0  0  0  0
   14.5597  -11.4172    0.0000 O   0  0  0  0  0  0  0  0  0  0  0  0
   13.1516  -12.2600    0.0000 C   0  0  0  0  0  0  0  0  0  0  0  0
   13.8848  -13.4796    0.0000 O   0  0  0  0  0  0  0  0  0  0  0  0
  1  2  2  0
  1  3  1  0
  1  4  1  0
  2  5  1  0
  2  6  1  0
  3  7  1  0
  4  8  2  0
  5  9  1  0
  6 10  1  0
  6 11  2  0
  8 12  1  0
  9 13  1  0
 13 14  1  0
 13 15  1  6
 14 16  1  1
 14 17  1  0
  9  7  1  6
  8 10  1  0
M  END
$$$$
