1102
     RDKit          2D

 23 24  0  0  1  0  0  0  0  0999 V2000
    2.8075   -0.7466    0.0000 O   0  0  0  0  0  0  0  0  0  0  0  0
    2.0930   -3.6342    0.0000 O   0  0  0  0  0  0  0  0  0  0  0  0
    3.5220   -4.4592    0.0000 O   0  0  0  0  0  0  0  0  0  0  0  0
    8.5234    4.2035    0.0000 O   0  0  0  0  0  0  0  0  0  0  0  0
    4.2365    0.0784    0.0000 N   0  0  0  0  0  0  0  0  0  0  0  0
    4.9509    1.3159    0.0000 C   0  0  0  0  0  0  0  0  0  0  0  0
    5.6655    1.7284    0.0000 C   0  0  0  0  0  0  0  0  0  0  0  0
    4.9509    0.4909    0.0000 C   0  0  0  0  0  0  0  0  0  0  0  0
    4.2365   -0.7466    0.0000 C   0  0  0  0  0  0  0  0  0  0  0  0
    5.6655    2.5534    0.0000 C   0  0  0  0  0  0  0  0  0  0  0  0
    3.5220   -1.1592    0.0000 C   0  0  0  0  0  0  0  0  0  0  0  0
    6.3799    2.9659    0.0000 C   0  0  0  0  0  0  0  0  0  0  0  0
    3.5220   -1.9842    0.0000 C   0  0  0  0  0  0  0  0  0  0  0  0
    2.8075   -2.3967    0.0000 C   0  0  0  0  0  0  0  0  0  0  0  0
    4.2365   -2.3967    0.0000 C   0  0  0  0  0  0  0  0  0  0  0  0
    6.3799    3.7910    0.0000 C   0  0  0  0  0  0  0  0  0  0  0  0
    7.0944    2.5534    0.0000 C   0  0  0  0  0  0  0  0  0  0  0  0
    2.8075   -3.2217    0.0000 C   0  0  0  0  0  0  0  0  0  0  0  0
    4.2365   -3.2217    0.0000 C   0  0  0  0  0  0  0  0  0  0  0  0
    7.0944    4.2035    0.0000 C   0  0  0  0  0  0  0  0  0  0  0  0
    7.8089    2.9659    0.0000 C   0  0  0  0  0  0  0  0  0  0  0  0
    3.5220   -3.6342    0.0000 C   0  0  0  0  0  0  0  0  0  0  0  0
    7.8089    3.7910    0.0000 C   0  0  0  0  0  0  0  0  0  0  0  0
 11  1  1  1
  2 18  1  0
  3 22  1  0
  4 23  1  0
  5  8  1  0
  5  9  1  0
  6  7  1  0
  6  8  1  0
  7 10  1  0
  9 11  1  0
 10 12  1  0
 11 13  1  0
 12 16  2  0
 12 17  1  0
 13 14  2  0
 13 15  1  0
 14 18  1  0
 15 19  2  0
 16 20  1  0
 17 21  2  0
 18 22  2  0
 19 22  1  0
 20 23  2  0
 21 23  1  0
M  END
$$$$
