1132
     RDKit          2D

 25 27  0  0  1  0  0  0  0  0999 V2000
    6.6906    2.6473    0.0000 S   0  0  0  0  0  0  0  0  0  0  0  0
    5.2224   -0.7296    0.0000 O   0  0  0  0  0  0  0  0  0  0  0  0
    5.4100    4.3554    0.0000 O   0  0  0  0  0  0  0  0  0  0  0  0
    8.0631    3.1742    0.0000 O   0  0  0  0  0  0  0  0  0  0  0  0
    6.8301    3.9749    0.0000 N   0  0  0  0  0  0  0  0  0  0  0  0
    3.7935   -3.2047    0.0000 N   0  0  0  0  0  0  0  0  0  0  0  0
    5.9369    2.9829    0.0000 C   0  0  0  0  0  0  0  0  0  0  0  0
    5.2224    2.5704    0.0000 C   0  0  0  0  0  0  0  0  0  0  0  0
    5.2224    1.7454    0.0000 C   0  0  0  0  0  0  0  0  0  0  0  0
    6.0231    3.8034    0.0000 C   0  0  0  0  0  0  0  0  0  0  0  0
    5.9369    1.3329    0.0000 C   0  0  0  0  0  0  0  0  0  0  0  0
    4.5079    1.3329    0.0000 C   0  0  0  0  0  0  0  0  0  0  0  0
    4.5079   -1.9671    0.0000 C   0  0  0  0  0  0  0  0  0  0  0  0
    5.2224    0.0954    0.0000 C   0  0  0  0  0  0  0  0  0  0  0  0
    4.5079   -1.1421    0.0000 C   0  0  0  0  0  0  0  0  0  0  0  0
    5.9369    0.5079    0.0000 C   0  0  0  0  0  0  0  0  0  0  0  0
    4.5079    0.5079    0.0000 C   0  0  0  0  0  0  0  0  0  0  0  0
    3.7935   -2.3796    0.0000 C   0  0  0  0  0  0  0  0  0  0  0  0
    7.2426    3.2604    0.0000 C   0  0  0  0  0  0  0  0  0  0  0  0
    2.3645   -3.2047    0.0000 C   0  0  0  0  0  0  0  0  0  0  0  0
    3.0790   -1.9671    0.0000 C   0  0  0  0  0  0  0  0  0  0  0  0
    1.6500   -3.6172    0.0000 C   0  0  0  0  0  0  0  0  0  0  0  0
    2.3645   -2.3796    0.0000 C   0  0  0  0  0  0  0  0  0  0  0  0
    3.0790   -3.6172    0.0000 C   0  0  0  0  0  0  0  0  0  0  0  0
    1.6500   -4.4422    0.0000 C   0  0  0  0  0  0  0  0  0  0  0  0
  1  7  1  0
  1 19  1  0
  2 14  1  0
  2 15  1  0
  3 10  2  0
  4 19  2  0
  5 10  1  0
  5 19  1  0
  6 18  2  0
  6 24  1  0
  7  8  1  0
  7 10  1  0
  8  9  1  0
  9 11  2  0
  9 12  1  0
 11 16  1  0
 12 17  2  0
 13 15  1  0
 13 18  1  0
 14 16  2  0
 14 17  1  0
 18 21  1  0
 20 22  1  0
 20 23  1  0
 20 24  2  0
 21 23  2  0
 22 25  1  0
M  END
$$$$
