 
     RDKit          2D

  9  9  0  0  1  0  0  0  0  0999 V2000
   14.4136  -10.0946    0.0000 C   0  0  0  0  0  0  0  0  0  0  0  0
   13.7020  -10.5071    0.0000 N   0  0  0  0  0  0  0  0  0  0  0  0
   14.4136   -9.2696    0.0000 C   0  0  0  0  0  0  0  0  0  0  0  0
   15.1288  -10.5071    0.0000 C   0  0  0  0  0  0  0  0  0  0  0  0
   12.9944  -10.0946    0.0000 C   0  0  0  0  0  0  0  0  0  0  0  0
   12.9944   -9.2696    0.0000 C   0  0  0  0  0  0  0  0  0  0  0  0
   15.1251  -11.5508    0.0000 O   0  0  0  0  0  0  0  0  0  0  0  0
   15.8403  -10.0908    0.0000 O   0  0  0  0  0  0  0  0  0  0  0  0
   12.2791  -10.5034    0.0000 O   0  0  0  0  0  0  0  0  0  0  0  0
  1  2  1  0
  1  3  1  0
  1  4  1  1
  2  5  1  0
  3  6  1  0
  4  7  1  0
  4  8  2  0
  5  9  2  0
  5  6  1  0
M  END
$$$$
