
     RDKit          2D

 39 41  0  0  0  0  0  0  0  0999 V2000
    2.3645   -1.8460    0.0000 S   0  0  0  0  0  0  0  0  0  0  0  0
    6.0031   -2.9224    0.0000 O   0  0  0  0  0  0  0  0  0  0  0  0
    9.4885   -0.1299    0.0000 O   0  0  0  0  0  0  0  0  0  0  0  0
    5.7085   -0.1964    0.0000 O   0  0  0  0  0  0  0  0  0  0  0  0
    2.7770   -2.5604    0.0000 O   0  0  0  0  0  0  0  0  0  0  0  0
    1.9520   -1.1315    0.0000 O   0  0  0  0  0  0  0  0  0  0  0  0
   11.6158    1.7788    0.0000 N   0  0  0  0  0  0  0  0  0  0  0  0
    3.0791   -1.4335    0.0000 N   0  0  0  0  0  0  0  0  0  0  0  0
   11.8720    2.5630    0.0000 C   0  0  0  0  0  0  0  0  0  0  0  0
   12.1667    1.1648    0.0000 C   0  0  0  0  0  0  0  0  0  0  0  0
   10.8085    1.6087    0.0000 C   0  0  0  0  0  0  0  0  0  0  0  0
   12.6793    2.7331    0.0000 C   0  0  0  0  0  0  0  0  0  0  0  0
   12.9740    1.3349    0.0000 C   0  0  0  0  0  0  0  0  0  0  0  0
   10.5521    0.8245    0.0000 C   0  0  0  0  0  0  0  0  0  0  0  0
   12.9356    3.5173    0.0000 C   0  0  0  0  0  0  0  0  0  0  0  0
   13.5250    0.7208    0.0000 C   0  0  0  0  0  0  0  0  0  0  0  0
    9.7449    0.6543    0.0000 C   0  0  0  0  0  0  0  0  0  0  0  0
    6.4846   -2.2585    0.0000 C   0  0  0  0  0  0  0  0  0  0  0  0
    6.0031   -1.5946    0.0000 C   0  0  0  0  0  0  0  0  0  0  0  0
    7.3097   -2.2585    0.0000 C   0  0  0  0  0  0  0  0  0  0  0  0
    5.2224   -1.8460    0.0000 C   0  0  0  0  0  0  0  0  0  0  0  0
    7.7222   -2.9730    0.0000 C   0  0  0  0  0  0  0  0  0  0  0  0
   13.7429    3.6875    0.0000 C   0  0  0  0  0  0  0  0  0  0  0  0
   14.3323    0.8909    0.0000 C   0  0  0  0  0  0  0  0  0  0  0  0
    5.2224   -2.6710    0.0000 C   0  0  0  0  0  0  0  0  0  0  0  0
    6.2594   -0.8104    0.0000 C   0  0  0  0  0  0  0  0  0  0  0  0
    8.5472   -2.9730    0.0000 C   0  0  0  0  0  0  0  0  0  0  0  0
    4.5080   -1.4335    0.0000 C   0  0  0  0  0  0  0  0  0  0  0  0
    7.0667   -0.6402    0.0000 C   0  0  0  0  0  0  0  0  0  0  0  0
    3.7935   -1.8460    0.0000 C   0  0  0  0  0  0  0  0  0  0  0  0
    8.6813   -0.3000    0.0000 C   0  0  0  0  0  0  0  0  0  0  0  0
    4.5080   -3.0835    0.0000 C   0  0  0  0  0  0  0  0  0  0  0  0
    3.7935   -2.6710    0.0000 C   0  0  0  0  0  0  0  0  0  0  0  0
    7.3230    0.1440    0.0000 C   0  0  0  0  0  0  0  0  0  0  0  0
    7.6177   -1.2543    0.0000 C   0  0  0  0  0  0  0  0  0  0  0  0
    8.1303    0.3141    0.0000 C   0  0  0  0  0  0  0  0  0  0  0  0
    8.4250   -1.0842    0.0000 C   0  0  0  0  0  0  0  0  0  0  0  0
    8.9597   -3.6875    0.0000 C   0  0  0  0  0  0  0  0  0  0  0  0
    1.6500   -2.2585    0.0000 C   0  0  0  0  0  0  0  0  0  0  0  0
  1  5  2  0
  1  6  2  0
  1  8  1  0
  1 39  1  0
  2 18  1  0
  2 25  1  0
  3 17  1  0
  3 31  1  0
  4 26  2  0
  7  9  1  0
  7 10  1  0
  7 11  1  0
  8 30  1  0
  9 12  1  0
 10 13  1  0
 11 14  1  0
 12 15  1  0
 13 16  1  0
 14 17  1  0
 15 23  1  0
 16 24  1  0
 18 19  2  0
 18 20  1  0
 19 21  1  0
 19 26  1  0
 20 22  1  0
 21 25  2  0
 21 28  1  0
 22 27  1  0
 25 32  1  0
 26 29  1  0
 27 38  1  0
 28 30  2  0
 29 34  2  0
 29 35  1  0
 30 33  1  0
 31 36  2  0
 31 37  1  0
 32 33  2  0
 34 36  1  0
 35 37  2  0
M  END
$$$$
