
     RDKit          2D

 23 22  0  0  0  0  0  0  0  0999 V2000
   10.8634    5.2584    0.0000 C   0  0  0  0  0  0  0  0  0  0  0  0
   11.5500    5.7158    0.0000 C   0  0  0  0  0  0  0  0  0  0  0  0
   12.2894    5.3499    0.0000 C   0  0  0  0  0  0  0  0  0  0  0  0
   12.9760    5.8072    0.0000 C   0  0  0  0  0  0  0  0  0  0  0  0
   13.7154    5.4413    0.0000 C   0  0  0  0  0  0  0  0  0  0  0  0
   14.4020    5.8987    0.0000 C   0  0  0  0  0  0  0  0  0  0  0  0
   15.1414    5.5328    0.0000 C   0  0  0  0  0  0  0  0  0  0  0  0
   15.8280    5.9902    0.0000 C   0  0  0  0  0  0  0  0  0  0  0  0
   16.5674    5.6243    0.0000 C   0  0  0  0  0  0  0  0  0  0  0  0
   17.2540    6.0817    0.0000 C   0  0  0  0  0  0  0  0  0  0  0  0
   17.9935    5.7158    0.0000 N   0  0  0  0  0  0  0  0  0  0  0  0
   17.6275    4.9764    0.0000 C   0  0  0  0  0  0  0  0  0  0  0  0
   18.3594    6.4552    0.0000 C   0  0  0  0  0  0  0  0  0  0  0  0
   18.7329    5.3499    0.0000 C   0  0  0  0  0  0  0  0  0  0  0  0
   19.4195    5.8072    0.0000 C   0  0  0  0  0  0  0  0  0  0  0  0
   20.1589    5.4413    0.0000 C   0  0  0  0  0  0  0  0  0  0  0  0
   20.8455    5.8987    0.0000 C   0  0  0  0  0  0  0  0  0  0  0  0
   21.5849    5.5328    0.0000 C   0  0  0  0  0  0  0  0  0  0  0  0
   22.2715    5.9902    0.0000 C   0  0  0  0  0  0  0  0  0  0  0  0
   23.0109    5.6243    0.0000 C   0  0  0  0  0  0  0  0  0  0  0  0
   23.6975    6.0817    0.0000 C   0  0  0  0  0  0  0  0  0  0  0  0
   24.4369    5.7158    0.0000 C   0  0  0  0  0  0  0  0  0  0  0  0
   25.1235    6.1732    0.0000 C   0  0  0  0  0  0  0  0  0  0  0  0
  1  2  1  0
  2  3  1  0
  3  4  1  0
  4  5  1  0
  5  6  1  0
  6  7  1  0
  7  8  1  0
  8  9  1  0
  9 10  1  0
 10 11  1  0
 11 12  1  0
 11 13  1  0
 11 14  1  0
 14 15  1  0
 15 16  1  0
 16 17  1  0
 17 18  1  0
 18 19  1  0
 19 20  1  0
 20 21  1  0
 21 22  1  0
 22 23  1  0
M  CHG  1  11   1
M  END
$$$$
