
     RDKit          2D

 10  9  0  0  0  0  0  0  0  0999 V2000
    1.9520    1.9520    0.0000 C   0  0  0  0  0  0  0  0  0  0  0  0
    1.9520    1.1270    0.0000 C   0  0  0  0  0  0  0  0  0  0  0  0
    1.2375    0.7145    0.0000 C   0  0  0  0  0  0  0  0  0  0  0  0
    0.5230    1.1270    0.0000 C   0  0  0  0  0  0  0  0  0  0  0  0
   -0.1914    0.7145    0.0000 C   0  0  0  0  0  0  0  0  0  0  0  0
   -0.9059    1.1270    0.0000 C   0  0  0  0  0  0  0  0  0  0  0  0
   -1.6204    0.7145    0.0000 C   0  0  0  0  0  0  0  0  0  0  0  0
   -0.9059    1.9520    0.0000 C   0  0  0  0  0  0  0  0  0  0  0  0
    2.6664    0.7145    0.0000 N   0  0  0  0  0  0  0  0  0  0  0  0
    3.3809    1.1270    0.0000 C   0  0  0  0  0  0  0  0  0  0  0  0
  1  2  1  0
  2  3  1  0
  3  4  1  0
  4  5  1  0
  5  6  2  0
  6  7  1  0
  6  8  1  0
  2  9  1  0
  9 10  1  0
M  END
$$$$
