
     RDKit          2D

 16 17  0  0  0  0  0  0  0  0999 V2000
   -1.5356    7.2402    0.0000 N   0  0  0  0  0  0  0  0  0  0  0  0
   -0.8212    6.8277    0.0000 C   0  0  0  0  0  0  0  0  0  0  0  0
   -0.1067    7.2402    0.0000 C   0  0  0  0  0  0  0  0  0  0  0  0
    0.6078    6.8277    0.0000 C   0  0  0  0  0  0  0  0  0  0  0  0
    0.6078    6.0027    0.0000 C   0  0  0  0  0  0  0  0  0  0  0  0
   -0.1067    5.5902    0.0000 C   0  0  0  0  0  0  0  0  0  0  0  0
   -0.8212    6.0027    0.0000 C   0  0  0  0  0  0  0  0  0  0  0  0
    1.3222    5.5902    0.0000 S   0  0  0  0  0  0  0  0  0  0  0  0
    0.9097    4.8757    0.0000 O   0  0  0  0  0  0  0  0  0  0  0  0
    1.7347    6.3047    0.0000 O   0  0  0  0  0  0  0  0  0  0  0  0
    2.0367    5.1777    0.0000 N   0  0  0  0  0  0  0  0  0  0  0  0
    2.0367    4.3527    0.0000 C   0  0  0  0  0  0  0  0  0  0  0  0
    2.7041    3.8678    0.0000 N   0  0  0  0  0  0  0  0  0  0  0  0
    2.4492    3.0831    0.0000 C   0  0  0  0  0  0  0  0  0  0  0  0
    1.6242    3.0831    0.0000 C   0  0  0  0  0  0  0  0  0  0  0  0
    1.3693    3.8678    0.0000 S   0  0  0  0  0  0  0  0  0  0  0  0
  1  2  1  0
  2  3  2  0
  3  4  1  0
  4  5  2  0
  5  6  1  0
  6  7  2  0
  2  7  1  0
  5  8  1  0
  8  9  2  0
  8 10  2  0
  8 11  1  0
 11 12  1  0
 12 13  2  0
 13 14  1  0
 14 15  2  0
 15 16  1  0
 12 16  1  0
M  END
$$$$
