[NO NAME]
     RDKit          2D

 29 31  0  0  0  0  0  0  0  0999 V2000
    3.7934   -1.9841    0.0000 O   0  0  0  0  0  0  0  0  0  0  0  0
    5.9369   -0.7466    0.0000 O   0  0  0  0  0  0  0  0  0  0  0  0
    7.3658   -0.7466    0.0000 O   0  0  0  0  0  0  0  0  0  0  0  0
    5.2223    0.4909    0.0000 N   0  0  0  0  0  0  0  0  0  0  0  0
    7.3658    1.7284    0.0000 N   0  0  0  0  0  0  0  0  0  0  0  0
    3.7934    1.3159    0.0000 C   0  0  0  0  0  0  0  0  0  0  0  0
    2.3644   -1.1591    0.0000 C   0  0  0  0  0  0  0  0  0  0  0  0
    3.7934    0.4909    0.0000 C   0  0  0  0  0  0  0  0  0  0  0  0
    3.0790   -0.7466    0.0000 C   0  0  0  0  0  0  0  0  0  0  0  0
    3.0790    0.0784    0.0000 C   0  0  0  0  0  0  0  0  0  0  0  0
    4.5079    0.0784    0.0000 C   0  0  0  0  0  0  0  0  0  0  0  0
    3.7934    2.1409    0.0000 C   0  0  0  0  0  0  0  0  0  0  0  0
    2.9684    1.3159    0.0000 C   0  0  0  0  0  0  0  0  0  0  0  0
    4.6184    1.3159    0.0000 C   0  0  0  0  0  0  0  0  0  0  0  0
    3.7934   -1.1591    0.0000 C   0  0  0  0  0  0  0  0  0  0  0  0
    1.6500   -1.5716    0.0000 C   0  0  0  0  0  0  0  0  0  0  0  0
    1.9520   -0.4447    0.0000 C   0  0  0  0  0  0  0  0  0  0  0  0
    2.7770   -1.8736    0.0000 C   0  0  0  0  0  0  0  0  0  0  0  0
    4.5079   -0.7466    0.0000 C   0  0  0  0  0  0  0  0  0  0  0  0
    5.9369    0.0784    0.0000 C   0  0  0  0  0  0  0  0  0  0  0  0
    6.6513    0.4909    0.0000 C   0  0  0  0  0  0  0  0  0  0  0  0
    7.3658    0.0784    0.0000 C   0  0  0  0  0  0  0  0  0  0  0  0
    8.0802    0.4909    0.0000 C   0  0  0  0  0  0  0  0  0  0  0  0
    6.6513    1.3159    0.0000 C   0  0  0  0  0  0  0  0  0  0  0  0
    8.0802    1.3159    0.0000 C   0  0  0  0  0  0  0  0  0  0  0  0
    8.8178    0.0497    0.0000 C   0  0  0  0  0  0  0  0  0  0  0  0
    8.8178    1.7570    0.0000 C   0  0  0  0  0  0  0  0  0  0  0  0
    9.5652    0.4737    0.0000 C   0  0  0  0  0  0  0  0  0  0  0  0
    9.5652    1.3330    0.0000 C   0  0  0  0  0  0  0  0  0  0  0  0
  1 15  1  0
  2 20  2  0
  3 22  2  0
  4 11  1  0
  4 20  1  0
  5 24  1  0
  5 25  1  0
  6  8  1  0
  6 12  1  0
  6 13  1  0
  6 14  1  0
  7  9  1  0
  7 16  1  0
  7 17  1  0
  7 18  1  0
  8 10  2  0
  8 11  1  0
  9 10  1  0
  9 15  2  0
 11 19  2  0
 15 19  1  0
 20 21  1  0
 21 22  1  0
 21 24  2  0
 22 23  1  0
 23 25  2  0
 23 26  1  0
 25 27  1  0
 26 28  2  0
 27 29  2  0
 28 29  1  0
M  END
$$$$
