
     RDKit          2D

 24 25  0  0  0  0  0  0  0  0999 V2000
    8.5737   -0.8250    0.0000 C   0  0  0  0  0  0  0  0  0  0  0  0
   18.5762    1.6500    0.0000 C   0  0  0  0  0  0  0  0  0  0  0  0
    9.2881   -0.4125    0.0000 C   0  0  0  0  0  0  0  0  0  0  0  0
   18.5762    0.8250    0.0000 C   0  0  0  0  0  0  0  0  0  0  0  0
   10.0026   -0.8250    0.0000 C   0  0  0  0  0  0  0  0  0  0  0  0
   17.8618    0.4125    0.0000 C   0  0  0  0  0  0  0  0  0  0  0  0
   10.7171   -0.4125    0.0000 C   0  0  0  0  0  0  0  0  0  0  0  0
   12.1460   -0.4125    0.0000 C   0  0  0  0  0  0  0  0  0  0  0  0
   12.8605   -0.8250    0.0000 C   0  0  0  0  0  0  0  0  0  0  0  0
   14.2894   -0.8250    0.0000 C   0  0  0  0  0  0  0  0  0  0  0  0
   15.0039   -0.4125    0.0000 C   0  0  0  0  0  0  0  0  0  0  0  0
   18.5762   -0.8250    0.0000 C   0  0  0  0  0  0  0  0  0  0  0  0
   17.1473   -1.6500    0.0000 C   0  0  0  0  0  0  0  0  0  0  0  0
   16.4328   -0.4125    0.0000 C   0  0  0  0  0  0  0  0  0  0  0  0
   18.8538   -2.9557    0.0000 C   0  0  0  0  0  0  0  0  0  0  0  0
   17.8618   -0.4125    0.0000 C   0  0  0  0  0  0  0  0  0  0  0  0
   17.1473   -0.8250    0.0000 C   0  0  0  0  0  0  0  0  0  0  0  0
   18.5762   -1.6500    0.0000 C   0  0  0  0  0  0  0  0  0  0  0  0
   17.8618   -2.0625    0.0000 C   0  0  0  0  0  0  0  0  0  0  0  0
   11.4315   -0.8250    0.0000 O   0  0  0  0  0  0  0  0  0  0  0  0
   13.5749   -0.4125    0.0000 O   0  0  0  0  0  0  0  0  0  0  0  0
   15.7184   -0.8250    0.0000 O   0  0  0  0  0  0  0  0  0  0  0  0
   19.1893   -2.2020    0.0000 O   0  0  0  0  0  0  0  0  0  0  0  0
   18.0333   -2.8695    0.0000 O   0  0  0  0  0  0  0  0  0  0  0  0
  3  1  1  0
  4  2  1  0
  5  3  1  0
  6  4  1  0
  7  5  1  0
  9  8  1  0
 11 10  1  0
 16  6  1  0
 16 12  2  0
 17 13  2  0
 17 14  1  0
 17 16  1  0
 18 12  1  0
 19 13  1  0
 19 18  2  0
 20  7  1  0
 20  8  1  0
 21  9  1  0
 21 10  1  0
 22 11  1  0
 22 14  1  0
 23 15  1  0
 23 18  1  0
 24 15  1  0
 24 19  1  0
M  END
$$$$
