
     RDKit          2D

 23 25  0  0  0  0  0  0  0  0999 V2000
    0.0000    0.0000    0.0000 C   0  0  0  0  0  0  0  0  0  0  0  0
   -4.2868    1.6500    0.0000 C   0  0  0  0  0  0  0  0  0  0  0  0
    0.7144    0.4125    0.0000 C   0  0  0  0  0  0  0  0  0  0  0  0
   -0.7144    0.4125    0.0000 C   0  0  0  0  0  0  0  0  0  0  0  0
   -3.5723    1.2375    0.0000 C   0  0  0  0  0  0  0  0  0  0  0  0
   -4.2868    2.4750    0.0000 C   0  0  0  0  0  0  0  0  0  0  0  0
    0.7144    1.2375    0.0000 C   0  0  0  0  0  0  0  0  0  0  0  0
   -0.7144    1.2375    0.0000 C   0  0  0  0  0  0  0  0  0  0  0  0
    1.4289    2.4750    0.0000 C   0  0  0  0  0  0  0  0  0  0  0  0
    0.7144    3.7125    0.0000 C   0  0  0  0  0  0  0  0  0  0  0  0
    2.1434    2.8875    0.0000 C   0  0  0  0  0  0  0  0  0  0  0  0
    1.4289    4.1250    0.0000 C   0  0  0  0  0  0  0  0  0  0  0  0
   -2.8578    1.6500    0.0000 C   0  0  0  0  0  0  0  0  0  0  0  0
   -3.5723    2.8875    0.0000 C   0  0  0  0  0  0  0  0  0  0  0  0
   -2.1434    2.8875    0.0000 C   0  0  0  0  0  0  0  0  0  0  0  0
   -1.4289    2.4750    0.0000 C   0  0  0  0  0  0  0  0  0  0  0  0
    0.0000    1.6500    0.0000 C   0  0  0  0  0  0  0  0  0  0  0  0
    0.7144    2.8875    0.0000 C   0  0  0  0  0  0  0  0  0  0  0  0
    2.1434    3.7125    0.0000 C   0  0  0  0  0  0  0  0  0  0  0  0
    0.0000    2.4750    0.0000 C   0  0  0  0  0  0  0  0  0  0  0  0
    2.8578    4.1250    0.0000 Cl  0  0  0  0  0  0  0  0  0  0  0  0
   -2.8578    2.4750    0.0000 N   0  0  0  0  0  0  0  0  0  0  0  0
   -0.7144    2.8875    0.0000 O   0  0  0  0  0  0  0  0  0  0  0  0
  3  1  2  0
  4  1  1  0
  5  2  1  0
  6  2  1  0
  7  3  1  0
  8  4  2  0
 11  9  2  0
 12 10  1  0
 13  5  1  0
 14  6  1  0
 16 15  1  0
 17  7  2  0
 17  8  1  0
 18  9  1  0
 18 10  2  0
 19 11  1  0
 19 12  2  0
 20 17  1  0
 20 18  1  0
 21 19  1  0
 22 13  1  0
 22 14  1  0
 22 15  1  0
 23 16  1  0
 23 20  1  0
M  END
$$$$
